pcf
* control data
restart estimation
45 3051 1 0 29
2 29 single point
10 -3.0 0.3 0.01 10 0
10.0 10.0 0.001
0.1
50 0.001 4 4 0.01 4
1 1 1 reisaveitn
* singular value decomposition
1
45 1e-7
1
* parameter groups
catch_scale relative 0.015 0 switch 2 parabolic
* parameter data
lw_fac log factor 0.9071369064603957 0.8 1.1 catch_scale 1 0
sw_fac log factor 0.9563947174962745 0.75 1.1 catch_scale 1 0
wind_fac log factor 0.9261845587889472 0.5 1.5 catch_scale 1 0
cd tied factor 0.001689144083583800 0.0011 0.0018 catch_scale 1 0
ce log factor 0.001689144083583800 0.0011 0.0018 catch_scale 1 0
ch log factor 0.001720575334807100 0.0011 0.0018 catch_scale 1 0
kw log factor 0.4136778243201735 0.1 1 catch_scale 1 0
sed_temp_m1 log factor 10.00548094651894 5 16 catch_scale 1 0
sed_temp_m2 log factor 10.31933687428112 6 17 catch_scale 1 0
sed_temp_m3 log factor 13.54366432003977 8 20 catch_scale 1 0
sed_temp_m4 log factor 21.09492706368752 10 24 catch_scale 1 0
sed_temp_a1 log factor 2.644212638029731 2 12 catch_scale 1 0
sed_temp_a2 log factor 4.494866806967703 2 12 catch_scale 1 0
sed_temp_a3 log factor 5.761703035993869 2 12 catch_scale 1 0
sed_temp_a4 log factor 6.007182826605779 2 12 catch_scale 1 0
sed_temp_d1 log factor 265.4384063203000 260 290 catch_scale 1 0
sed_temp_d2 log factor 269.9737569111200 260 290 catch_scale 1 0
sed_temp_d3 log factor 279.1512895869600 260 290 catch_scale 1 0
sed_temp_d4 log factor 278.8399402116700 260 290 catch_scale 1 0
sed_heat_k1 log factor 1.384973075483304 1 1.4 catch_scale 1 0
sed_heat_k2 log factor 1.300031808337195 1 1.4 catch_scale 1 0
sed_heat_k3 log factor 1.272834322515524 1 1.4 catch_scale 1 0
sed_heat_k4 log factor 1.272832635650362 1 1.4 catch_scale 1 0
fsed_oxy1 log factor 30.33179875153638 10 60 catch_scale -1 0
fsed_oxy2 log factor 18.33995016351665 2 40 catch_scale -1 0
fsed_oxy3 log factor 11.27437907196032 2 40 catch_scale -1 0
fsed_oxy4 log factor 12.51679495174718 2 40 catch_scale -1 0
ksed_oxy log factor 33.70992183856151 1 50 catch_scale 1 0
thsed_oxy log factor 1.104420727921303 0.8 1.2 catch_scale 1 0
Rch4ox log factor 0.25 0.01 0.75 catch_scale 1 0
Kch4ox log factor 5 0.1 10 catch_scale 1 0
vTch4ox log factor 1.08  1 1.2 catch_scale 1 0
inflow_fac log factor 0.4934473545661622 0.1 1.3 catch_scale 1 0
outflow_fac tied factor 0.4934473545661622 0.1 1.3 catch_scale 1 0
rpoc_resp log factor 0.00009 0.00001 0.0001 catch_scale 1 0
theta_pocR log factor 1.05 1 1.2 catch_scale 1 0
Kpocox_sed log factor 1 0.5 5 catch_scale 1 0
Ksed_beta log factor 0.01 0.005 0.5 catch_scale 1 0
diff_coef log factor 0.00000000001 0.000000000001 0.00000001 catch_scale 1 0
phi log factor 0.3 0.25 0.35 catch_scale 1 0
sed_z log factor 0.01 0.0001 0.1 catch_scale 1 0
z_dbl log factor 0.001 0.0001 0.001 catch_scale 1 0
Rch4oxS log factor 0.003 0.0005 0.1 catch_scale 1 0
Kch4oxS log factor 0.001 0.0001 0.1 catch_scale 1 0
theta_ch4oxS log factor 1.05 1 1.2 catch_scale 1 0
cd ce
outflow_fac inflow_fac
* observation groups
temp_0.1
temp_1
temp_2
temp_3
temp_4
temp_5
temp_6
temp_7
temp_8
temp_9
oxy_0.1
oxy_1
oxy_2
oxy_3
oxy_4
oxy_5
oxy_6
oxy_7
oxy_8
oxy_9
ch4_0.1
ch4_1.6
ch4_3.8
ch4_5
ch4_6.2
ch4_8
ch4_9
diff_ch4
ebb_ch4
* observation data
wq0.1_t_1	7.8	0.1775454	temp_0.1
wq0.1_t_2	7.8657	0.1775454	temp_0.1
wq0.1_t_3	8.1	0.1775454	temp_0.1
wq0.1_t_4	11.696	0.1775454	temp_0.1
wq0.1_t_5	12.4	0.1775454	temp_0.1
wq0.1_t_6	13.4659	0.1775454	temp_0.1
wq0.1_t_7	13.9	0.1775454	temp_0.1
wq0.1_t_8	19.0712	0.1775454	temp_0.1
wq0.1_t_9	18.05	0.1775454	temp_0.1
wq0.1_t_10	16.1635	0.1775454	temp_0.1
wq0.1_t_11	19.4914	0.1775454	temp_0.1
wq0.1_t_12	19.65	0.1775454	temp_0.1
wq0.1_t_13	17.1867	0.1775454	temp_0.1
wq0.1_t_14	14.9571	0.1775454	temp_0.1
wq0.1_t_15	14.95	0.1775454	temp_0.1
wq0.1_t_16	15.0035	0.1775454	temp_0.1
wq0.1_t_17	17.5529	0.1775454	temp_0.1
wq0.1_t_18	17.3	0.1775454	temp_0.1
wq0.1_t_19	22.3	0.1775454	temp_0.1
wq0.1_t_20	19.3	0.1775454	temp_0.1
wq0.1_t_21	18.3	0.1775454	temp_0.1
wq0.1_t_22	20.6	0.1775454	temp_0.1
wq0.1_t_23	21.1	0.1775454	temp_0.1
wq0.1_t_24	21.9	0.1775454	temp_0.1
wq0.1_t_25	21.8	0.1775454	temp_0.1
wq0.1_t_26	20.1	0.1775454	temp_0.1
wq0.1_t_27	23.1	0.1775454	temp_0.1
wq0.1_t_28	25.5	0.1775454	temp_0.1
wq0.1_t_29	24.2	0.1775454	temp_0.1
wq0.1_t_30	23.6346	0.1775454	temp_0.1
wq0.1_t_31	25.5055	0.1775454	temp_0.1
wq0.1_t_32	22.05	0.1775454	temp_0.1
wq0.1_t_33	25.4938	0.1775454	temp_0.1
wq0.1_t_34	25.7259	0.1775454	temp_0.1
wq0.1_t_35	26.2851	0.1775454	temp_0.1
wq0.1_t_36	26.8109	0.1775454	temp_0.1
wq0.1_t_37	28.8	0.1775454	temp_0.1
wq0.1_t_38	27	0.1775454	temp_0.1
wq0.1_t_39	28.6	0.1775454	temp_0.1
wq0.1_t_40	24.6	0.1775454	temp_0.1
wq0.1_t_41	24.3	0.1775454	temp_0.1
wq0.1_t_42	24.8	0.1775454	temp_0.1
wq0.1_t_43	27.3	0.1775454	temp_0.1
wq0.1_t_44	17.5	0.1775454	temp_0.1
wq0.1_t_45	22	0.1775454	temp_0.1
wq0.1_t_46	16.7	0.1775454	temp_0.1
wq0.1_t_47	18.4	0.1775454	temp_0.1
wq0.1_t_48	19.2	0.1775454	temp_0.1
wq0.1_t_49	13.7	0.1775454	temp_0.1
wq0.1_t_50	20.7	0.1775454	temp_0.1
wq0.1_t_51	14.5	0.1775454	temp_0.1
wq0.1_t_52	15.2	0.1775454	temp_0.1
wq0.1_t_53	9	0.1775454	temp_0.1
wq0.1_t_54	14.3	0.1775454	temp_0.1
wq0.1_t_55	6.1414	0.1775454	temp_0.1
wq0.1_t_56	4.1	0.1775454	temp_0.1
wq0.1_t_57	2.4	0.1775454	temp_0.1
wq0.1_t_58	6.5	0.1775454	temp_0.1
wq0.1_t_59	9.1	0.1775454	temp_0.1
wq0.1_t_60	10.9	0.1775454	temp_0.1
wq0.1_t_61	9.8	0.1775454	temp_0.1
wq0.1_t_62	14.7479	0.1775454	temp_0.1
wq0.1_t_63	13.5212	0.1775454	temp_0.1
wq0.1_t_64	13.6454	0.1775454	temp_0.1
wq0.1_t_65	14.217	0.1775454	temp_0.1
wq0.1_t_66	15.2336	0.1775454	temp_0.1
wq0.1_t_67	19.5629	0.1775454	temp_0.1
wq0.1_t_68	19.9079	0.1775454	temp_0.1
wq0.1_t_69	22.0623	0.1775454	temp_0.1
wq0.1_t_70	23.642	0.1775454	temp_0.1
wq0.1_t_71	24.3799	0.1775454	temp_0.1
wq0.1_t_72	22.6666	0.1775454	temp_0.1
wq0.1_t_73	22	0.1775454	temp_0.1
wq0.1_t_74	21.0907	0.1775454	temp_0.1
wq0.1_t_75	23.1231	0.1775454	temp_0.1
wq0.1_t_76	22.5203	0.1775454	temp_0.1
wq0.1_t_77	22.6763	0.1775454	temp_0.1
wq0.1_t_78	23.4003	0.1775454	temp_0.1
wq0.1_t_79	23.0855	0.1775454	temp_0.1
wq0.1_t_80	24.6738	0.1775454	temp_0.1
wq0.1_t_81	24.7688	0.1775454	temp_0.1
wq0.1_t_82	26.1952	0.1775454	temp_0.1
wq0.1_t_83	27.2422	0.1775454	temp_0.1
wq0.1_t_84	27.3263	0.1775454	temp_0.1
wq0.1_t_85	26.2219	0.1775454	temp_0.1
wq0.1_t_86	23.952	0.1775454	temp_0.1
wq0.1_t_87	27.452	0.1775454	temp_0.1
wq0.1_t_88	28.8083	0.1775454	temp_0.1
wq0.1_t_89	25.5168	0.1775454	temp_0.1
wq0.1_t_90	27.3995	0.1775454	temp_0.1
wq0.1_t_91	26.9707	0.1775454	temp_0.1
wq0.1_t_92	24.9385	0.1775454	temp_0.1
wq0.1_t_93	26.9256	0.1775454	temp_0.1
wq0.1_t_94	25.6653	0.1775454	temp_0.1
wq0.1_t_95	25.3842	0.1775454	temp_0.1
wq0.1_t_96	25.983	0.1775454	temp_0.1
wq0.1_t_97	26.3496	0.1775454	temp_0.1
wq0.1_t_98	27.4757	0.1775454	temp_0.1
wq0.1_t_99	26.6	0.1775454	temp_0.1
wq0.1_t_100	26.5094	0.1775454	temp_0.1
wq0.1_t_101	26.9415	0.1775454	temp_0.1
wq0.1_t_102	25.8962	0.1775454	temp_0.1
wq0.1_t_103	24.372	0.1775454	temp_0.1
wq0.1_t_104	26.0445	0.1775454	temp_0.1
wq0.1_t_105	26.117	0.1775454	temp_0.1
wq0.1_t_106	26.8473	0.1775454	temp_0.1
wq0.1_t_107	28.0762	0.1775454	temp_0.1
wq0.1_t_108	23.2	0.1775454	temp_0.1
wq0.1_t_109	23.9868	0.1775454	temp_0.1
wq0.1_t_110	24.3203	0.1775454	temp_0.1
wq0.1_t_111	23.4	0.1775454	temp_0.1
wq0.1_t_112	22.8417	0.1775454	temp_0.1
wq0.1_t_113	24.7236	0.1775454	temp_0.1
wq0.1_t_114	21.8	0.1775454	temp_0.1
wq0.1_t_115	21.4644	0.1775454	temp_0.1
wq0.1_t_116	21.3117	0.1775454	temp_0.1
wq0.1_t_117	24.0209	0.1775454	temp_0.1
wq0.1_t_118	23.8171	0.1775454	temp_0.1
wq0.1_t_119	17.7	0.1775454	temp_0.1
wq0.1_t_120	16.0301	0.1775454	temp_0.1
wq0.1_t_121	15.3	0.1775454	temp_0.1
wq0.1_t_122	14.4926	0.1775454	temp_0.1
wq0.1_t_123	12.3892	0.1775454	temp_0.1
wq0.1_t_124	12.7126	0.1775454	temp_0.1
wq0.1_t_125	13.4469	0.1775454	temp_0.1
wq0.1_t_126	9.7628	0.1775454	temp_0.1
wq0.1_t_127	8.6	0.1775454	temp_0.1
wq0.1_t_128	8.5742	0.1775454	temp_0.1
wq0.1_t_129	5.0427	0.1775454	temp_0.1
wq0.1_t_130	4.9	0.1775454	temp_0.1
wq0.1_t_131	4.5289	0.1775454	temp_0.1
wq1_t_1	8.9	0.1775454	temp_1
wq1_t_2	7.9477	0.1775454	temp_1
wq1_t_3	11.7836	0.1775454	temp_1
wq1_t_4	11.8	0.1775454	temp_1
wq1_t_5	13.7861	0.1775454	temp_1
wq1_t_6	13.1	0.1775454	temp_1
wq1_t_7	17.6792	0.1775454	temp_1
wq1_t_8	16.0313	0.1775454	temp_1
wq1_t_9	17.6644	0.1775454	temp_1
wq1_t_10	16.3492	0.1775454	temp_1
wq1_t_11	14.8675	0.1775454	temp_1
wq1_t_12	15	0.1775454	temp_1
wq1_t_13	14.794	0.1775454	temp_1
wq1_t_14	17.4872	0.1775454	temp_1
wq1_t_15	17.6	0.1775454	temp_1
wq1_t_16	22.1	0.1775454	temp_1
wq1_t_17	20.3	0.1775454	temp_1
wq1_t_18	18.1	0.1775454	temp_1
wq1_t_19	20.5	0.1775454	temp_1
wq1_t_20	18.6	0.1775454	temp_1
wq1_t_21	19.2	0.1775454	temp_1
wq1_t_22	22.1	0.1775454	temp_1
wq1_t_23	20.1	0.1775454	temp_1
wq1_t_24	23	0.1775454	temp_1
wq1_t_25	24.7	0.1775454	temp_1
wq1_t_26	24.1	0.1775454	temp_1
wq1_t_27	23.2851	0.1775454	temp_1
wq1_t_28	25.4863	0.1775454	temp_1
wq1_t_29	25.3	0.1775454	temp_1
wq1_t_30	25.6214	0.1775454	temp_1
wq1_t_31	25.5406	0.1775454	temp_1
wq1_t_32	25.7886	0.1775454	temp_1
wq1_t_33	25.3243	0.1775454	temp_1
wq1_t_34	27.4	0.1775454	temp_1
wq1_t_35	26.6	0.1775454	temp_1
wq1_t_36	28.5	0.1775454	temp_1
wq1_t_37	24.5	0.1775454	temp_1
wq1_t_38	24.4	0.1775454	temp_1
wq1_t_39	24.9	0.1775454	temp_1
wq1_t_40	26.7	0.1775454	temp_1
wq1_t_41	24.1	0.1775454	temp_1
wq1_t_42	21.5	0.1775454	temp_1
wq1_t_43	19.5	0.1775454	temp_1
wq1_t_44	21.5	0.1775454	temp_1
wq1_t_45	23.1	0.1775454	temp_1
wq1_t_46	20	0.1775454	temp_1
wq1_t_47	20.9	0.1775454	temp_1
wq1_t_48	20.2	0.1775454	temp_1
wq1_t_49	13.4	0.1775454	temp_1
wq1_t_50	14.2	0.1775454	temp_1
wq1_t_51	14	0.1775454	temp_1
wq1_t_52	6.0014	0.1775454	temp_1
wq1_t_53	6.5	0.1775454	temp_1
wq1_t_54	2.6	0.1775454	temp_1
wq1_t_55	6.3	0.1775454	temp_1
wq1_t_56	10.9	0.1775454	temp_1
wq1_t_57	9.9	0.1775454	temp_1
wq1_t_58	14.7933	0.1775454	temp_1
wq1_t_59	13.5172	0.1775454	temp_1
wq1_t_60	13.5007	0.1775454	temp_1
wq1_t_61	14.1616	0.1775454	temp_1
wq1_t_62	15.0933	0.1775454	temp_1
wq1_t_63	16.6785	0.1775454	temp_1
wq1_t_64	19.9103	0.1775454	temp_1
wq1_t_65	20.9199	0.1775454	temp_1
wq1_t_66	23.5748	0.1775454	temp_1
wq1_t_67	21.9423	0.1775454	temp_1
wq1_t_68	21.7405	0.1775454	temp_1
wq1_t_69	19.8	0.1775454	temp_1
wq1_t_70	18.8061	0.1775454	temp_1
wq1_t_71	20.331	0.1775454	temp_1
wq1_t_72	20.0947	0.1775454	temp_1
wq1_t_73	20.8529	0.1775454	temp_1
wq1_t_74	23.1671	0.1775454	temp_1
wq1_t_75	22.7822	0.1775454	temp_1
wq1_t_76	24.68	0.1775454	temp_1
wq1_t_77	23.1242	0.1775454	temp_1
wq1_t_78	24.4994	0.1775454	temp_1
wq1_t_79	24.3627	0.1775454	temp_1
wq1_t_80	26.4212	0.1775454	temp_1
wq1_t_81	26.2063	0.1775454	temp_1
wq1_t_82	23.8528	0.1775454	temp_1
wq1_t_83	25.5154	0.1775454	temp_1
wq1_t_84	27.0201	0.1775454	temp_1
wq1_t_85	25.7468	0.1775454	temp_1
wq1_t_86	27.2692	0.1775454	temp_1
wq1_t_87	26.7712	0.1775454	temp_1
wq1_t_88	25.1816	0.1775454	temp_1
wq1_t_89	25.3062	0.1775454	temp_1
wq1_t_90	25.2657	0.1775454	temp_1
wq1_t_91	25.0658	0.1775454	temp_1
wq1_t_92	26.1238	0.1775454	temp_1
wq1_t_93	26.3115	0.1775454	temp_1
wq1_t_94	26.6027	0.1775454	temp_1
wq1_t_95	26.3	0.1775454	temp_1
wq1_t_96	25.4828	0.1775454	temp_1
wq1_t_97	26.2019	0.1775454	temp_1
wq1_t_98	25.8152	0.1775454	temp_1
wq1_t_99	23.8242	0.1775454	temp_1
wq1_t_100	24.5103	0.1775454	temp_1
wq1_t_101	25.9928	0.1775454	temp_1
wq1_t_102	26.0739	0.1775454	temp_1
wq1_t_103	26.5807	0.1775454	temp_1
wq1_t_104	23.7	0.1775454	temp_1
wq1_t_105	23.9721	0.1775454	temp_1
wq1_t_106	23.7735	0.1775454	temp_1
wq1_t_107	22.8	0.1775454	temp_1
wq1_t_108	22.5649	0.1775454	temp_1
wq1_t_109	23.8721	0.1775454	temp_1
wq1_t_110	21.9	0.1775454	temp_1
wq1_t_111	22.0204	0.1775454	temp_1
wq1_t_112	20.8297	0.1775454	temp_1
wq1_t_113	21.9599	0.1775454	temp_1
wq1_t_114	22.8504	0.1775454	temp_1
wq1_t_115	17.4	0.1775454	temp_1
wq1_t_116	15.879	0.1775454	temp_1
wq1_t_117	15.3	0.1775454	temp_1
wq1_t_118	14.3858	0.1775454	temp_1
wq1_t_119	12.0927	0.1775454	temp_1
wq1_t_120	12.5746	0.1775454	temp_1
wq1_t_121	12.933	0.1775454	temp_1
wq1_t_122	9.7441	0.1775454	temp_1
wq1_t_123	8.2	0.1775454	temp_1
wq1_t_124	8.1398	0.1775454	temp_1
wq1_t_125	4.8959	0.1775454	temp_1
wq1_t_126	4.6	0.1775454	temp_1
wq1_t_127	4.5274	0.1775454	temp_1
wq2_t_1	8.8	0.1775454	temp_2
wq2_t_2	7.9806	0.1775454	temp_2
wq2_t_3	8.1	0.1775454	temp_2
wq2_t_4	11.7219	0.1775454	temp_2
wq2_t_5	11.3	0.1775454	temp_2
wq2_t_6	13.19	0.1775454	temp_2
wq2_t_7	12.7	0.1775454	temp_2
wq2_t_8	13.854	0.1775454	temp_2
wq2_t_9	17.3	0.1775454	temp_2
wq2_t_10	14.2371	0.1775454	temp_2
wq2_t_11	14.4583	0.1775454	temp_2
wq2_t_12	17.5	0.1775454	temp_2
wq2_t_13	15.0129	0.1775454	temp_2
wq2_t_14	14.698	0.1775454	temp_2
wq2_t_15	14.8	0.1775454	temp_2
wq2_t_16	13.5531	0.1775454	temp_2
wq2_t_17	14.8232	0.1775454	temp_2
wq2_t_18	17.6	0.1775454	temp_2
wq2_t_19	18.3	0.1775454	temp_2
wq2_t_20	20.3	0.1775454	temp_2
wq2_t_21	17.4	0.1775454	temp_2
wq2_t_22	17.6	0.1775454	temp_2
wq2_t_23	17.6	0.1775454	temp_2
wq2_t_24	18.1	0.1775454	temp_2
wq2_t_25	22	0.1775454	temp_2
wq2_t_26	20	0.1775454	temp_2
wq2_t_27	21.7	0.1775454	temp_2
wq2_t_28	24	0.1775454	temp_2
wq2_t_29	23.8	0.1775454	temp_2
wq2_t_30	21.8394	0.1775454	temp_2
wq2_t_31	22.5444	0.1775454	temp_2
wq2_t_32	25.1	0.1775454	temp_2
wq2_t_33	22.8529	0.1775454	temp_2
wq2_t_34	22.111	0.1775454	temp_2
wq2_t_35	22.8037	0.1775454	temp_2
wq2_t_36	22.8427	0.1775454	temp_2
wq2_t_37	24.6	0.1775454	temp_2
wq2_t_38	26	0.1775454	temp_2
wq2_t_39	26.6	0.1775454	temp_2
wq2_t_40	24.3	0.1775454	temp_2
wq2_t_41	24.3	0.1775454	temp_2
wq2_t_42	24.9	0.1775454	temp_2
wq2_t_43	26.5	0.1775454	temp_2
wq2_t_44	23.8	0.1775454	temp_2
wq2_t_45	21.3	0.1775454	temp_2
wq2_t_46	19.5	0.1775454	temp_2
wq2_t_47	20.9	0.1775454	temp_2
wq2_t_48	22.4	0.1775454	temp_2
wq2_t_49	19.9	0.1775454	temp_2
wq2_t_50	20.7	0.1775454	temp_2
wq2_t_51	20.2	0.1775454	temp_2
wq2_t_52	17.4	0.1775454	temp_2
wq2_t_53	14.1	0.1775454	temp_2
wq2_t_54	13.8	0.1775454	temp_2
wq2_t_55	5.9348	0.1775454	temp_2
wq2_t_56	6.2	0.1775454	temp_2
wq2_t_57	2.8	0.1775454	temp_2
wq2_t_58	6.1	0.1775454	temp_2
wq2_t_59	6.8	0.1775454	temp_2
wq2_t_60	10.1	0.1775454	temp_2
wq2_t_61	9.7	0.1775454	temp_2
wq2_t_62	13.0031	0.1775454	temp_2
wq2_t_63	13.2017	0.1775454	temp_2
wq2_t_64	12.7374	0.1775454	temp_2
wq2_t_65	14.1139	0.1775454	temp_2
wq2_t_66	14.5657	0.1775454	temp_2
wq2_t_67	15.309	0.1775454	temp_2
wq2_t_68	16.23	0.1775454	temp_2
wq2_t_69	18.6709	0.1775454	temp_2
wq2_t_70	18.5294	0.1775454	temp_2
wq2_t_71	17.9078	0.1775454	temp_2
wq2_t_72	18.3273	0.1775454	temp_2
wq2_t_73	17.8	0.1775454	temp_2
wq2_t_74	17.1403	0.1775454	temp_2
wq2_t_75	17.3756	0.1775454	temp_2
wq2_t_76	17.9244	0.1775454	temp_2
wq2_t_77	18.1587	0.1775454	temp_2
wq2_t_78	19.0698	0.1775454	temp_2
wq2_t_79	19.5111	0.1775454	temp_2
wq2_t_80	19.9714	0.1775454	temp_2
wq2_t_81	19.2105	0.1775454	temp_2
wq2_t_82	21.0731	0.1775454	temp_2
wq2_t_83	20.661	0.1775454	temp_2
wq2_t_84	21.3279	0.1775454	temp_2
wq2_t_85	22.1904	0.1775454	temp_2
wq2_t_86	21.5672	0.1775454	temp_2
wq2_t_87	22.3412	0.1775454	temp_2
wq2_t_88	23.3335	0.1775454	temp_2
wq2_t_89	23.366	0.1775454	temp_2
wq2_t_90	24.402	0.1775454	temp_2
wq2_t_91	24.2766	0.1775454	temp_2
wq2_t_92	25.037	0.1775454	temp_2
wq2_t_93	23.3636	0.1775454	temp_2
wq2_t_94	24.9674	0.1775454	temp_2
wq2_t_95	23.7597	0.1775454	temp_2
wq2_t_96	23.7704	0.1775454	temp_2
wq2_t_97	26.2	0.1775454	temp_2
wq2_t_98	25.066	0.1775454	temp_2
wq2_t_99	24.688	0.1775454	temp_2
wq2_t_100	23.5643	0.1775454	temp_2
wq2_t_101	23.6773	0.1775454	temp_2
wq2_t_102	24.4267	0.1775454	temp_2
wq2_t_103	24.592	0.1775454	temp_2
wq2_t_104	25.3733	0.1775454	temp_2
wq2_t_105	23.7	0.1775454	temp_2
wq2_t_106	22.6	0.1775454	temp_2
wq2_t_107	22.3991	0.1775454	temp_2
wq2_t_108	22.9537	0.1775454	temp_2
wq2_t_109	21.9	0.1775454	temp_2
wq2_t_110	22.0182	0.1775454	temp_2
wq2_t_111	20.6061	0.1775454	temp_2
wq2_t_112	22.4168	0.1775454	temp_2
wq2_t_113	17.2	0.1775454	temp_2
wq2_t_114	15.8211	0.1775454	temp_2
wq2_t_115	15.3	0.1775454	temp_2
wq2_t_116	14.3723	0.1775454	temp_2
wq2_t_117	12.0219	0.1775454	temp_2
wq2_t_118	12.3447	0.1775454	temp_2
wq2_t_119	12.609	0.1775454	temp_2
wq2_t_120	9.7812	0.1775454	temp_2
wq2_t_121	8.1	0.1775454	temp_2
wq2_t_122	8.0912	0.1775454	temp_2
wq2_t_123	5.3383	0.1775454	temp_2
wq2_t_124	4.6	0.1775454	temp_2
wq2_t_125	4.5358	0.1775454	temp_2
wq3_t_1	8.2	0.1775454	temp_3
wq3_t_2	8.0272	0.1775454	temp_3
wq3_t_3	10.4396	0.1775454	temp_3
wq3_t_4	9.6	0.1775454	temp_3
wq3_t_5	12.13	0.1775454	temp_3
wq3_t_6	11.7	0.1775454	temp_3
wq3_t_7	11.6361	0.1775454	temp_3
wq3_t_8	12.2878	0.1775454	temp_3
wq3_t_9	12.0095	0.1775454	temp_3
wq3_t_10	11.982	0.1775454	temp_3
wq3_t_11	12.4828	0.1775454	temp_3
wq3_t_12	13.7	0.1775454	temp_3
wq3_t_13	12.9311	0.1775454	temp_3
wq3_t_14	12.5661	0.1775454	temp_3
wq3_t_15	14.4	0.1775454	temp_3
wq3_t_16	14.9	0.1775454	temp_3
wq3_t_17	15.8	0.1775454	temp_3
wq3_t_18	16.1	0.1775454	temp_3
wq3_t_19	16	0.1775454	temp_3
wq3_t_20	17	0.1775454	temp_3
wq3_t_21	17.3	0.1775454	temp_3
wq3_t_22	18.3	0.1775454	temp_3
wq3_t_23	18.3	0.1775454	temp_3
wq3_t_24	18.9	0.1775454	temp_3
wq3_t_25	20.1	0.1775454	temp_3
wq3_t_26	21.1	0.1775454	temp_3
wq3_t_27	18.6588	0.1775454	temp_3
wq3_t_28	19.0543	0.1775454	temp_3
wq3_t_29	22.4	0.1775454	temp_3
wq3_t_30	19.2278	0.1775454	temp_3
wq3_t_31	19.8463	0.1775454	temp_3
wq3_t_32	20.3994	0.1775454	temp_3
wq3_t_33	20.6384	0.1775454	temp_3
wq3_t_34	23.7	0.1775454	temp_3
wq3_t_35	24.8	0.1775454	temp_3
wq3_t_36	24.3	0.1775454	temp_3
wq3_t_37	23.6	0.1775454	temp_3
wq3_t_38	23.7	0.1775454	temp_3
wq3_t_39	23.7	0.1775454	temp_3
wq3_t_40	24.7	0.1775454	temp_3
wq3_t_41	23.7	0.1775454	temp_3
wq3_t_42	20.9	0.1775454	temp_3
wq3_t_43	19.5	0.1775454	temp_3
wq3_t_44	19.7	0.1775454	temp_3
wq3_t_45	20.9	0.1775454	temp_3
wq3_t_46	19.7	0.1775454	temp_3
wq3_t_47	20.2	0.1775454	temp_3
wq3_t_48	20.2	0.1775454	temp_3
wq3_t_49	17.4	0.1775454	temp_3
wq3_t_50	14	0.1775454	temp_3
wq3_t_51	13.7	0.1775454	temp_3
wq3_t_52	5.9146	0.1775454	temp_3
wq3_t_53	6.1	0.1775454	temp_3
wq3_t_54	2.9	0.1775454	temp_3
wq3_t_55	5.9	0.1775454	temp_3
wq3_t_56	8.3	0.1775454	temp_3
wq3_t_57	9.5	0.1775454	temp_3
wq3_t_58	11.9593	0.1775454	temp_3
wq3_t_59	10.5236	0.1775454	temp_3
wq3_t_60	10.5552	0.1775454	temp_3
wq3_t_61	13.6391	0.1775454	temp_3
wq3_t_62	11.4832	0.1775454	temp_3
wq3_t_63	13.4197	0.1775454	temp_3
wq3_t_64	13.5431	0.1775454	temp_3
wq3_t_65	14.9881	0.1775454	temp_3
wq3_t_66	14.4529	0.1775454	temp_3
wq3_t_67	15.5545	0.1775454	temp_3
wq3_t_68	15.0278	0.1775454	temp_3
wq3_t_69	16.6	0.1775454	temp_3
wq3_t_70	14.657	0.1775454	temp_3
wq3_t_71	14.7044	0.1775454	temp_3
wq3_t_72	14.2953	0.1775454	temp_3
wq3_t_73	15.0648	0.1775454	temp_3
wq3_t_74	15.2755	0.1775454	temp_3
wq3_t_75	15.8177	0.1775454	temp_3
wq3_t_76	15.522	0.1775454	temp_3
wq3_t_77	16.1489	0.1775454	temp_3
wq3_t_78	15.523	0.1775454	temp_3
wq3_t_79	17.0584	0.1775454	temp_3
wq3_t_80	16.2883	0.1775454	temp_3
wq3_t_81	16.6097	0.1775454	temp_3
wq3_t_82	16.3711	0.1775454	temp_3
wq3_t_83	17.0682	0.1775454	temp_3
wq3_t_84	16.9997	0.1775454	temp_3
wq3_t_85	17.1679	0.1775454	temp_3
wq3_t_86	18.2176	0.1775454	temp_3
wq3_t_87	17.4784	0.1775454	temp_3
wq3_t_88	18.0925	0.1775454	temp_3
wq3_t_89	19.8275	0.1775454	temp_3
wq3_t_90	19.2407	0.1775454	temp_3
wq3_t_91	18.8057	0.1775454	temp_3
wq3_t_92	19.4151	0.1775454	temp_3
wq3_t_93	23.3	0.1775454	temp_3
wq3_t_94	19.641	0.1775454	temp_3
wq3_t_95	21.1225	0.1775454	temp_3
wq3_t_96	21.1584	0.1775454	temp_3
wq3_t_97	23.1	0.1775454	temp_3
wq3_t_98	22.3	0.1775454	temp_3
wq3_t_99	22.0024	0.1775454	temp_3
wq3_t_100	21.9539	0.1775454	temp_3
wq3_t_101	21.6	0.1775454	temp_3
wq3_t_102	21.3074	0.1775454	temp_3
wq3_t_103	20.2613	0.1775454	temp_3
wq3_t_104	17.1	0.1775454	temp_3
wq3_t_105	17.1265	0.1775454	temp_3
wq3_t_106	15.6579	0.1775454	temp_3
wq3_t_107	15.3	0.1775454	temp_3
wq3_t_108	14.3652	0.1775454	temp_3
wq3_t_109	12.0028	0.1775454	temp_3
wq3_t_110	11.8157	0.1775454	temp_3
wq3_t_111	12.2075	0.1775454	temp_3
wq3_t_112	9.7796	0.1775454	temp_3
wq3_t_113	8	0.1775454	temp_3
wq3_t_114	8.0837	0.1775454	temp_3
wq3_t_115	5.3374	0.1775454	temp_3
wq3_t_116	4.5	0.1775454	temp_3
wq3_t_117	4.5378	0.1775454	temp_3
wq4_t_1	7.4	0.1775454	temp_4
wq4_t_2	8.0348	0.1775454	temp_4
wq4_t_3	8	0.1775454	temp_4
wq4_t_4	9.2932	0.1775454	temp_4
wq4_t_5	8.7	0.1775454	temp_4
wq4_t_6	11.4403	0.1775454	temp_4
wq4_t_7	11	0.1775454	temp_4
wq4_t_8	10.5119	0.1775454	temp_4
wq4_t_9	12	0.1775454	temp_4
wq4_t_10	10.4422	0.1775454	temp_4
wq4_t_11	10.2747	0.1775454	temp_4
wq4_t_12	11.8	0.1775454	temp_4
wq4_t_13	10.2193	0.1775454	temp_4
wq4_t_14	9.7701	0.1775454	temp_4
wq4_t_15	12.4	0.1775454	temp_4
wq4_t_16	10.0481	0.1775454	temp_4
wq4_t_17	10.6059	0.1775454	temp_4
wq4_t_18	12.9	0.1775454	temp_4
wq4_t_19	13.1	0.1775454	temp_4
wq4_t_20	13.3	0.1775454	temp_4
wq4_t_21	14.1	0.1775454	temp_4
wq4_t_22	13.6	0.1775454	temp_4
wq4_t_23	16.3	0.1775454	temp_4
wq4_t_24	16.2	0.1775454	temp_4
wq4_t_25	16.5	0.1775454	temp_4
wq4_t_26	16.7	0.1775454	temp_4
wq4_t_27	17.2	0.1775454	temp_4
wq4_t_28	18	0.1775454	temp_4
wq4_t_29	18.4	0.1775454	temp_4
wq4_t_30	16.1564	0.1775454	temp_4
wq4_t_31	15.754	0.1775454	temp_4
wq4_t_32	19	0.1775454	temp_4
wq4_t_33	15.7186	0.1775454	temp_4
wq4_t_34	17.6337	0.1775454	temp_4
wq4_t_35	18.2674	0.1775454	temp_4
wq4_t_36	18.9252	0.1775454	temp_4
wq4_t_37	20.9	0.1775454	temp_4
wq4_t_38	20.9	0.1775454	temp_4
wq4_t_39	21.6	0.1775454	temp_4
wq4_t_40	20.8	0.1775454	temp_4
wq4_t_41	20.7	0.1775454	temp_4
wq4_t_42	21.6	0.1775454	temp_4
wq4_t_43	21.7	0.1775454	temp_4
wq4_t_44	17.7315	0.1775454	temp_4
wq4_t_45	22.4	0.1775454	temp_4
wq4_t_46	18.9307	0.1775454	temp_4
wq4_t_47	20.6	0.1775454	temp_4
wq4_t_48	19.4	0.1775454	temp_4
wq4_t_49	19.1	0.1775454	temp_4
wq4_t_50	19.9	0.1775454	temp_4
wq4_t_51	19.6	0.1775454	temp_4
wq4_t_52	19.5	0.1775454	temp_4
wq4_t_53	19.7	0.1775454	temp_4
wq4_t_54	17.3	0.1775454	temp_4
wq4_t_55	13.8	0.1775454	temp_4
wq4_t_56	13.4	0.1775454	temp_4
wq4_t_57	5.8869	0.1775454	temp_4
wq4_t_58	6	0.1775454	temp_4
wq4_t_59	2.9	0.1775454	temp_4
wq4_t_60	5.9	0.1775454	temp_4
wq4_t_61	7.2	0.1775454	temp_4
wq4_t_62	9.4	0.1775454	temp_4
wq4_t_63	8.6759	0.1775454	temp_4
wq4_t_64	8.3889	0.1775454	temp_4
wq4_t_65	9.2676	0.1775454	temp_4
wq4_t_66	9.6818	0.1775454	temp_4
wq4_t_67	9.3011	0.1775454	temp_4
wq4_t_68	10.1153	0.1775454	temp_4
wq4_t_69	10.0026	0.1775454	temp_4
wq4_t_70	10.767	0.1775454	temp_4
wq4_t_71	10.8503	0.1775454	temp_4
wq4_t_72	11.2468	0.1775454	temp_4
wq4_t_73	10.7391	0.1775454	temp_4
wq4_t_74	13.9	0.1775454	temp_4
wq4_t_75	9.8873	0.1775454	temp_4
wq4_t_76	10.4925	0.1775454	temp_4
wq4_t_77	10.9614	0.1775454	temp_4
wq4_t_78	11.0123	0.1775454	temp_4
wq4_t_79	10.9423	0.1775454	temp_4
wq4_t_80	11.7473	0.1775454	temp_4
wq4_t_81	11.8206	0.1775454	temp_4
wq4_t_82	11.2865	0.1775454	temp_4
wq4_t_83	12.3363	0.1775454	temp_4
wq4_t_84	11.9234	0.1775454	temp_4
wq4_t_85	11.9344	0.1775454	temp_4
wq4_t_86	12.5342	0.1775454	temp_4
wq4_t_87	12.2333	0.1775454	temp_4
wq4_t_88	12.3326	0.1775454	temp_4
wq4_t_89	12.6726	0.1775454	temp_4
wq4_t_90	13.1413	0.1775454	temp_4
wq4_t_91	13.0874	0.1775454	temp_4
wq4_t_92	13.2426	0.1775454	temp_4
wq4_t_93	13.4979	0.1775454	temp_4
wq4_t_94	14.0782	0.1775454	temp_4
wq4_t_95	13.5263	0.1775454	temp_4
wq4_t_96	12.8469	0.1775454	temp_4
wq4_t_97	14.5314	0.1775454	temp_4
wq4_t_98	13.8063	0.1775454	temp_4
wq4_t_99	14.6728	0.1775454	temp_4
wq4_t_100	18.5	0.1775454	temp_4
wq4_t_101	14.398	0.1775454	temp_4
wq4_t_102	14.4286	0.1775454	temp_4
wq4_t_103	14.7346	0.1775454	temp_4
wq4_t_104	15.0275	0.1775454	temp_4
wq4_t_105	15.0212	0.1775454	temp_4
wq4_t_106	16.2578	0.1775454	temp_4
wq4_t_107	16.2103	0.1775454	temp_4
wq4_t_108	15.3696	0.1775454	temp_4
wq4_t_109	21.6	0.1775454	temp_4
wq4_t_110	15.7725	0.1775454	temp_4
wq4_t_111	16.5377	0.1775454	temp_4
wq4_t_112	21.8	0.1775454	temp_4
wq4_t_113	21.1957	0.1775454	temp_4
wq4_t_114	21.0497	0.1775454	temp_4
wq4_t_115	21.1	0.1775454	temp_4
wq4_t_116	20.7827	0.1775454	temp_4
wq4_t_117	19.7447	0.1775454	temp_4
wq4_t_118	19.5836	0.1775454	temp_4
wq4_t_119	19.4689	0.1775454	temp_4
wq4_t_120	17	0.1775454	temp_4
wq4_t_121	16.9933	0.1775454	temp_4
wq4_t_122	15.5326	0.1775454	temp_4
wq4_t_123	14.9	0.1775454	temp_4
wq4_t_124	14.3432	0.1775454	temp_4
wq4_t_125	12.0003	0.1775454	temp_4
wq4_t_126	11.7434	0.1775454	temp_4
wq4_t_127	12.1001	0.1775454	temp_4
wq4_t_128	9.7801	0.1775454	temp_4
wq4_t_129	8	0.1775454	temp_4
wq4_t_130	8.0577	0.1775454	temp_4
wq4_t_131	5.3358	0.1775454	temp_4
wq4_t_132	4.5	0.1775454	temp_4
wq4_t_133	4.5844	0.1775454	temp_4
wq5_t_1	7.1	0.1775454	temp_5
wq5_t_2	8.0632	0.1775454	temp_5
wq5_t_3	7.9	0.1775454	temp_5
wq5_t_4	8.5213	0.1775454	temp_5
wq5_t_5	8.2	0.1775454	temp_5
wq5_t_6	10.6928	0.1775454	temp_5
wq5_t_7	9.5	0.1775454	temp_5
wq5_t_8	9.0327	0.1775454	temp_5
wq5_t_9	10.3	0.1775454	temp_5
wq5_t_10	8.9724	0.1775454	temp_5
wq5_t_11	9.3758	0.1775454	temp_5
wq5_t_12	9.4	0.1775454	temp_5
wq5_t_13	9.5569	0.1775454	temp_5
wq5_t_14	9.6964	0.1775454	temp_5
wq5_t_15	9.8	0.1775454	temp_5
wq5_t_16	9.7849	0.1775454	temp_5
wq5_t_17	9.9775	0.1775454	temp_5
wq5_t_18	10.2	0.1775454	temp_5
wq5_t_19	10.7	0.1775454	temp_5
wq5_t_20	10.9	0.1775454	temp_5
wq5_t_21	11.3	0.1775454	temp_5
wq5_t_22	10.9	0.1775454	temp_5
wq5_t_23	15.3	0.1775454	temp_5
wq5_t_24	15.3	0.1775454	temp_5
wq5_t_25	15.2	0.1775454	temp_5
wq5_t_26	14.9	0.1775454	temp_5
wq5_t_27	15.1	0.1775454	temp_5
wq5_t_28	15.3	0.1775454	temp_5
wq5_t_29	15.1	0.1775454	temp_5
wq5_t_30	12.8227	0.1775454	temp_5
wq5_t_31	13.1168	0.1775454	temp_5
wq5_t_32	15.2	0.1775454	temp_5
wq5_t_33	13.0406	0.1775454	temp_5
wq5_t_34	15.5131	0.1775454	temp_5
wq5_t_35	16.3745	0.1775454	temp_5
wq5_t_36	17.078	0.1775454	temp_5
wq5_t_37	18.9	0.1775454	temp_5
wq5_t_38	18.5	0.1775454	temp_5
wq5_t_39	18.3	0.1775454	temp_5
wq5_t_40	17.9	0.1775454	temp_5
wq5_t_41	17.6	0.1775454	temp_5
wq5_t_42	17.5	0.1775454	temp_5
wq5_t_43	17.8	0.1775454	temp_5
wq5_t_44	16.9827	0.1775454	temp_5
wq5_t_45	17.5	0.1775454	temp_5
wq5_t_46	18.632	0.1775454	temp_5
wq5_t_47	17.7	0.1775454	temp_5
wq5_t_48	17.5	0.1775454	temp_5
wq5_t_49	17.9	0.1775454	temp_5
wq5_t_50	17.6	0.1775454	temp_5
wq5_t_51	17.7	0.1775454	temp_5
wq5_t_52	17.7	0.1775454	temp_5
wq5_t_53	18.1	0.1775454	temp_5
wq5_t_54	17	0.1775454	temp_5
wq5_t_55	13.7	0.1775454	temp_5
wq5_t_56	13.3	0.1775454	temp_5
wq5_t_57	5.8872	0.1775454	temp_5
wq5_t_58	5.9	0.1775454	temp_5
wq5_t_59	2.9	0.1775454	temp_5
wq5_t_60	5.6	0.1775454	temp_5
wq5_t_61	5.8	0.1775454	temp_5
wq5_t_62	7	0.1775454	temp_5
wq5_t_63	8	0.1775454	temp_5
wq5_t_64	7.5213	0.1775454	temp_5
wq5_t_65	8.2353	0.1775454	temp_5
wq5_t_66	8.4113	0.1775454	temp_5
wq5_t_67	8.2838	0.1775454	temp_5
wq5_t_68	8.1914	0.1775454	temp_5
wq5_t_69	8.7247	0.1775454	temp_5
wq5_t_70	8.8285	0.1775454	temp_5
wq5_t_71	9.1762	0.1775454	temp_5
wq5_t_72	9.3757	0.1775454	temp_5
wq5_t_73	9.4214	0.1775454	temp_5
wq5_t_74	9.5192	0.1775454	temp_5
wq5_t_75	10.8	0.1775454	temp_5
wq5_t_76	9.7046	0.1775454	temp_5
wq5_t_77	9.9252	0.1775454	temp_5
wq5_t_78	10.0198	0.1775454	temp_5
wq5_t_79	10.066	0.1775454	temp_5
wq5_t_80	10.1873	0.1775454	temp_5
wq5_t_81	10.2928	0.1775454	temp_5
wq5_t_82	10.446	0.1775454	temp_5
wq5_t_83	10.5465	0.1775454	temp_5
wq5_t_84	10.7101	0.1775454	temp_5
wq5_t_85	10.6849	0.1775454	temp_5
wq5_t_86	10.8356	0.1775454	temp_5
wq5_t_87	10.9147	0.1775454	temp_5
wq5_t_88	10.9828	0.1775454	temp_5
wq5_t_89	11.0898	0.1775454	temp_5
wq5_t_90	11.1754	0.1775454	temp_5
wq5_t_91	11.2763	0.1775454	temp_5
wq5_t_92	11.6187	0.1775454	temp_5
wq5_t_93	11.5261	0.1775454	temp_5
wq5_t_94	11.7926	0.1775454	temp_5
wq5_t_95	11.8548	0.1775454	temp_5
wq5_t_96	11.9385	0.1775454	temp_5
wq5_t_97	11.9402	0.1775454	temp_5
wq5_t_98	12.2504	0.1775454	temp_5
wq5_t_99	12.1267	0.1775454	temp_5
wq5_t_100	12.1768	0.1775454	temp_5
wq5_t_101	13.6	0.1775454	temp_5
wq5_t_102	12.2288	0.1775454	temp_5
wq5_t_103	12.6938	0.1775454	temp_5
wq5_t_104	12.4773	0.1775454	temp_5
wq5_t_105	12.5633	0.1775454	temp_5
wq5_t_106	12.7215	0.1775454	temp_5
wq5_t_107	12.8333	0.1775454	temp_5
wq5_t_108	12.8623	0.1775454	temp_5
wq5_t_109	13.1274	0.1775454	temp_5
wq5_t_110	15.5	0.1775454	temp_5
wq5_t_111	12.5049	0.1775454	temp_5
wq5_t_112	13.1156	0.1775454	temp_5
wq5_t_113	19.1	0.1775454	temp_5
wq5_t_114	17.4184	0.1775454	temp_5
wq5_t_115	18.4301	0.1775454	temp_5
wq5_t_116	20	0.1775454	temp_5
wq5_t_117	18.7085	0.1775454	temp_5
wq5_t_118	18.6563	0.1775454	temp_5
wq5_t_119	18.197	0.1775454	temp_5
wq5_t_120	18.2405	0.1775454	temp_5
wq5_t_121	16.8	0.1775454	temp_5
wq5_t_122	16.7872	0.1775454	temp_5
wq5_t_123	15.4	0.1775454	temp_5
wq5_t_124	14.8	0.1775454	temp_5
wq5_t_125	14.278	0.1775454	temp_5
wq5_t_126	12.0006	0.1775454	temp_5
wq5_t_127	11.7185	0.1775454	temp_5
wq5_t_128	12.0418	0.1775454	temp_5
wq5_t_129	9.7754	0.1775454	temp_5
wq5_t_130	8	0.1775454	temp_5
wq5_t_131	8.0247	0.1775454	temp_5
wq5_t_132	5.3301	0.1775454	temp_5
wq5_t_133	4.5	0.1775454	temp_5
wq5_t_134	4.5771	0.1775454	temp_5
wq6_t_1	6.9	0.1775454	temp_6
wq6_t_2	8.0734	0.1775454	temp_6
wq6_t_3	7.8	0.1775454	temp_6
wq6_t_4	8.2932	0.1775454	temp_6
wq6_t_5	7.8	0.1775454	temp_6
wq6_t_6	9.1368	0.1775454	temp_6
wq6_t_7	8.5	0.1775454	temp_6
wq6_t_8	8.3336	0.1775454	temp_6
wq6_t_9	8.9	0.1775454	temp_6
wq6_t_10	8.9102	0.1775454	temp_6
wq6_t_11	9.351	0.1775454	temp_6
wq6_t_12	9.3	0.1775454	temp_6
wq6_t_13	9.567	0.1775454	temp_6
wq6_t_14	9.6778	0.1775454	temp_6
wq6_t_15	9.7	0.1775454	temp_6
wq6_t_16	9.779	0.1775454	temp_6
wq6_t_17	9.9663	0.1775454	temp_6
wq6_t_18	10	0.1775454	temp_6
wq6_t_19	10.2	0.1775454	temp_6
wq6_t_20	10.5	0.1775454	temp_6
wq6_t_21	10.5	0.1775454	temp_6
wq6_t_22	10.6	0.1775454	temp_6
wq6_t_23	14.5	0.1775454	temp_6
wq6_t_24	13.5	0.1775454	temp_6
wq6_t_25	13	0.1775454	temp_6
wq6_t_26	12	0.1775454	temp_6
wq6_t_27	12.3	0.1775454	temp_6
wq6_t_28	13	0.1775454	temp_6
wq6_t_29	13	0.1775454	temp_6
wq6_t_30	12.7361	0.1775454	temp_6
wq6_t_31	12.9296	0.1775454	temp_6
wq6_t_32	13.4	0.1775454	temp_6
wq6_t_33	12.9852	0.1775454	temp_6
wq6_t_34	13.0838	0.1775454	temp_6
wq6_t_35	13.2291	0.1775454	temp_6
wq6_t_36	13.2516	0.1775454	temp_6
wq6_t_37	15.1	0.1775454	temp_6
wq6_t_38	15	0.1775454	temp_6
wq6_t_39	14.5	0.1775454	temp_6